Circuit: * C:\Users\haidv\Documents\LTSpice\ADC_Input_OVP.asc

Direct Newton iteration for .op point succeeded.

Date: Wed Dec  4 16:49:39 2024
Total elapsed time: 0.068 seconds.

tnom = 27
temp = 27
method = modified trap
totiter = 7529
traniter = 7514
tranpoints = 3509
accept = 3013
rejected = 496
matrix size = 7
fillins = 0
solver = Normal
Avg thread counts: 1.0/1.0/1.0/1.0
Matrix Compiler1: off  [0.1]/0.1/0.1
Matrix Compiler2: off  [0.1]/0.1/0.1

